data_exampleCif

_audit_creation_method RASPA-1.0
_audit_creation_date 2020-4-2
_audit_author_name 'EosFiLiC'

_cell_length_a    29.2582
_cell_length_b    29.2582
_cell_length_c    29.2582
_cell_angle_alpha 90
_cell_angle_beta  90
_cell_angle_gamma 90
_cell_volume      25046.3

_symmetry_cell_setting          triclinic
_symmetry_space_group_name_Hall 'P 1'
_symmetry_space_group_name_H-M  'P 1'
_symmetry_Int_Tables_number     1

_symmetry_equiv_pos_as_xyz 'x,y,z'

loop_
_atom_site_label
_atom_site_type_symbol
_atom_site_fract_x
_atom_site_fract_y
_atom_site_fract_z
_atom_site_charge
H4       H      0.24215     0.86950     0.77826   0.220200
H4       H      0.76144     0.68027     0.76865   0.220200
H4       H      0.74357     0.64331     0.72260   0.220200
...
...
H4       H      0.80301     0.65792     0.72879   0.220200
H4       H      0.26144     0.18027     0.26865   0.220200
H4       H      0.24357     0.14331     0.22260   0.220200
H4       H      0.30301     0.15792     0.22879   0.220200
